!!>>>>>>>>>>>>>>>>>>>>>>>>>>>>>>>>>>>>>>>>>>>>>>>>>>>>>>>>>>>>>>>>>>>>>>
!! NEMO/TOP1 :  Configuration namelist : used to overwrite defaults values defined in SHARED/namelist_top_ref
!>>>>>>>>>>>>>>>>>>>>>>>>>>>>>>>>>>>>>>>>>>>>>>>>>>>>>>>>>>>>>>>>>>>>>>>
!-----------------------------------------------------------------------
&namtrc_run     !   run information
!-----------------------------------------------------------------------
/
!-----------------------------------------------------------------------
&namtrc     !   tracers definition
!-----------------------------------------------------------------------
!                !    name   !           title of the field              ! initial data ! initial data ! save   !
!                !           !                                           !  units       ! from file    ! or not ! 
!                !           !                                           !              ! or not       !        !
/
!-----------------------------------------------------------------------
&namtrc_dta      !    Initialisation from data input file
!-----------------------------------------------------------------------
!          !  file name  ! frequency (hours) ! variable  ! time interp. !  clim  ! 'yearly'/ ! weights  ! rotation ! land/sea mask !
!          !             !  (if <0  months)  !   name    !   (logical)  !  (T/F) ! 'monthly' ! filename ! pairing  ! filename      !
/
!-----------------------------------------------------------------------
&namtrc_adv    !   advection scheme for passive tracer 
!-----------------------------------------------------------------------
/
!-----------------------------------------------------------------------
&namtrc_ldf    !   lateral diffusion scheme for passive tracer 
!-----------------------------------------------------------------------
/
!-----------------------------------------------------------------------
&namtrc_zdf        !   vertical physics
!-----------------------------------------------------------------------
/
!-----------------------------------------------------------------------
&namtrc_rad        !  treatment of negative concentrations 
!-----------------------------------------------------------------------
/
!-----------------------------------------------------------------------
&namtrc_dia       !   parameters for passive tracer additional diagnostics
!----------------------------------------------------------------------
/
!----------------------------------------------------------------------
&namtrc_bc        !   data for boundary conditions
!-----------------------------------------------------------------------
/
